Info: SIMULATION PARAMETERS:
Info: TIMESTEP               1
Info: NUMBER OF STEPS        0
Info: STEPS PER CYCLE        20
Info: FIRST LDB TIMESTEP     100
Info: LAST LDB TIMESTEP     -1
Info: HOM BACKGROUND SCALING 1
Info: MIN ATOMS PER PATCH    40
Info: INITIAL TEMPERATURE    0
Info: CENTER OF MASS MOVING INITIALLY? NO
Info: DIELECTRIC             1
Info: EXCLUDE                SCALED ONE-FOUR
Info: 1-4 ELECTROSTATICS SCALED BY 0.5
Info: MODIFIED 1-4 VDW PARAMETERS WILL BE USED
Info: NO DCD TRAJECTORY OUTPUT
Info: NO EXTENDED SYSTEM TRAJECTORY OUTPUT
Info: NO VELOCITY DCD OUTPUT
Info: NO FORCE DCD OUTPUT
Info: OUTPUT FILENAME        plt_min
Info: NO RESTART FILE
Info: SWITCHING ACTIVE
Info: SWITCHING ON           50
Info: SWITCHING OFF          100
Info: PAIRLIST DISTANCE      100
Info: PAIRLIST SHRINK RATE   0.01
Info: PAIRLIST GROW RATE     0.01
Info: PAIRLIST TRIGGER       0.3
Info: PAIRLISTS PER CYCLE    2
Info: PAIRLISTS ENABLED
Info: MARGIN                 0
Info: HYDROGEN GROUP CUTOFF  2.5
Info: PATCH DIMENSION        102.5
Info: CROSSTERM ENERGY INCLUDED IN DIHEDRAL
Info: TIMING OUTPUT STEPS    100
Info: USING VERLET I (r-RESPA) MTS SCHEME.
Info: C1 SPLITTING OF LONG RANGE ELECTROSTATICS
Info: PLACING ATOMS IN PATCHES BY HYDROGEN GROUPS
Info: RANDOM NUMBER SEED     1507670405
Info: USE HYDROGEN BONDS?    NO
Info: COORDINATE PDB         GP.pdb
Info: STRUCTURE FILE         GP.psf
Info: PARAMETER file: CHARMM format!
Info: PARAMETERS             par_opls_aam.inp
Info: USING GEOMETRIC MEAN TO COMBINE L-J SIGMA PARAMETERS
Info: SUMMARY OF PARAMETERS:
Info: 159 BONDS
Info: 437 ANGLES
Info: 1448 DIHEDRAL
Info: 105 IMPROPER
Info: 0 CROSSTERM
Info: 78 VDW
Info: 0 VDW_PAIRS
Info: 0 NBTHOLE_PAIRS
Info: STRUCTURE SUMMARY:
Info: 75 ATOMS
Info: 74 BONDS
Info: 129 ANGLES
Info: 182 DIHEDRALS
Info: 17 IMPROPERS
Info: 0 CROSSTERMS
Info: 0 EXCLUSIONS
Info: 222 DEGREES OF FREEDOM
Info: 34 HYDROGEN GROUPS
Info: 4 ATOMS IN LARGEST HYDROGEN GROUP
Info: 34 MIGRATION GROUPS
Info: 4 ATOMS IN LARGEST MIGRATION GROUP
Info: TOTAL MASS = 489.608 amu
Info: TOTAL CHARGE = 3 e
Info: ADDED 385 IMPLICIT EXCLUSIONS
Info: NONBONDED TABLE R-SQUARED SPACING: 0.0625
Info: NONBONDED TABLE SIZE: 1153 POINTS
Info: REMOVING COM VELOCITY 0 0 0
TCL: Minimizing for 1000 steps
ETITLE: TS BOND ANGLE DIHED IMPRP ELECT VDW BOUNDARY MISC KINETIC TOTAL TEMP POTENTIAL TOTAL3 TEMPAVG
ENERGY: 0 83.2894 15.6425 5.5188 0.3848 -42.0247 18.4766 0.0000 0.0000 0.0000 81.2875 0.0000 81.2875 81.2875 0.0000
ENERGY: 200 3.4132 15.9780 5.0941 0.7433 -68.1243 8.3952 0.0000 0.0000 0.0000 -34.5005 0.0000 -34.5005 -34.5005 0.0000
ENERGY: 400 2.1704 12.8666 5.0646 0.7879 -75.1710 7.9751 0.0000 0.0000 0.0000 -46.3064 0.0000 -46.3064 -46.3064 0.0000
ENERGY: 600 1.9469 13.9103 5.5343 0.9110 -86.4466 9.0062 0.0000 0.0000 0.0000 -55.1380 0.0000 -55.1380 -55.1380 0.0000
ENERGY: 800 3.3991 17.3541 5.3202 0.9809 -108.6522 13.8068 0.0000 0.0000 0.0000 -67.7912 0.0000 -67.7912 -67.7912 0.0000
ENERGY: 1000 3.2804 20.2833 5.6195 0.8934 -114.0519 13.2703 0.0000 0.0000 0.0000 -70.7050 0.0000 -70.7050 -70.7050 0.0000
